*SPEF "ieee 1481-1999"
*DESIGN "dpll"
*DATE "11:11:11 Fri 11 11, 1111"
*VENDOR "OpenRCX"
*PROGRAM "Parallel Extraction"
*VERSION "1.0"
*DESIGN_FLOW "NAME_SCOPE LOCAL" "PIN_CAP NONE"
*DIVIDER /
*DELIMITER :
*BUS_DELIMITER []
*T_UNIT 1 NS
*C_UNIT 1 PF
*R_UNIT 1 OHM
*L_UNIT 1 HENRY

*NAME_MAP
*1 clk_fin
*2 freq_select[0]
*3 freq_select[1]
*4 net7
*5 net8
*6 io_out[0]
*7 io_out[1]
*10 wb_clk_i
*11 wb_rst_i
*12 _000_
*13 _001_
*14 _002_
*15 _003_
*16 _004_
*17 _005_
*18 _006_
*19 _007_
*20 _008_
*21 _009_
*22 _010_
*23 _011_
*24 _012_
*25 _013_
*26 _014_
*27 _015_
*28 _016_
*29 _017_
*30 _018_
*31 _019_
*32 _020_
*33 _021_
*34 _022_
*35 _023_
*36 _024_
*37 _025_
*38 _026_
*39 _027_
*40 _028_
*41 _029_
*42 _030_
*43 _031_
*44 _032_
*45 _033_
*46 _034_
*47 _035_
*48 _036_
*49 _037_
*50 _038_
*51 _039_
*52 _040_
*53 _041_
*54 _042_
*55 _043_
*56 _044_
*57 _045_
*58 _046_
*59 _047_
*60 _048_
*61 _049_
*62 _050_
*63 _051_
*64 _052_
*65 _053_
*66 _054_
*67 _055_
*68 _056_
*69 _057_
*70 _058_
*71 _059_
*72 _060_
*73 _061_
*74 _062_
*75 _063_
*76 _064_
*77 _065_
*78 _066_
*79 _067_
*80 _068_
*81 _069_
*82 _070_
*83 _071_
*84 _072_
*85 _073_
*86 _074_
*87 _075_
*88 _076_
*89 _077_
*90 _078_
*91 _079_
*92 _080_
*93 _081_
*94 _082_
*95 _083_
*96 _084_
*97 _085_
*98 _086_
*99 _087_
*100 clknet_0_wb_clk_i
*101 clknet_1_0__leaf_wb_clk_i
*102 clknet_1_1__leaf_wb_clk_i
*103 id_decrement
*104 id_decrement_done
*105 id_out
*106 k_count\[0\]
*107 k_count\[1\]
*108 k_count\[2\]
*109 k_count\[3\]
*110 k_count\[4\]
*111 k_count\[5\]
*112 k_count\[6\]
*113 k_count\[7\]
*114 k_count_borrow
*115 n_count\[0\]
*116 n_count\[1\]
*117 n_count\[2\]
*118 n_count\[3\]
*119 n_count\[4\]
*120 n_count\[5\]
*121 n_count\[6\]
*122 n_count\[7\]
*123 n_count\[8\]
*124 net1
*125 net2
*126 net3
*127 net4
*128 net5
*129 net6
*130 ANTENNA__088__I
*131 ANTENNA__089__A3
*132 ANTENNA__091__A1
*133 ANTENNA__091__A2
*134 ANTENNA__092__A2
*135 ANTENNA__092__B2
*136 ANTENNA__094__A3
*137 ANTENNA__095__A2
*138 ANTENNA__098__I
*139 ANTENNA__100__I
*140 ANTENNA__110__A1
*141 ANTENNA__111__A1
*142 ANTENNA__113__I
*143 ANTENNA__114__A2
*144 ANTENNA__116__A1
*145 ANTENNA__121__A1
*146 ANTENNA__126__A1
*147 ANTENNA__129__B
*148 ANTENNA__132__I
*149 ANTENNA__163__I
*150 ANTENNA__178__CLK
*151 ANTENNA__179__CLK
*152 ANTENNA__180__CLK
*153 ANTENNA__181__CLK
*154 ANTENNA__182__CLK
*155 ANTENNA__183__CLK
*156 ANTENNA__184__CLK
*157 ANTENNA__185__CLK
*158 ANTENNA__186__CLK
*159 ANTENNA__187__CLK
*160 ANTENNA__188__CLK
*161 ANTENNA__189__CLK
*162 ANTENNA__190__CLK
*163 ANTENNA__191__CLK
*164 ANTENNA__192__CLK
*165 ANTENNA__193__CLK
*166 ANTENNA__194__CLK
*167 ANTENNA__195__CLK
*168 ANTENNA__196__CLK
*169 ANTENNA__197__CLK
*170 ANTENNA__198__CLK
*171 ANTENNA_clkbuf_0_wb_clk_i_I
*172 ANTENNA_input1_I
*173 ANTENNA_input2_I
*174 ANTENNA_input3_I
*175 ANTENNA_input4_I
*176 ANTENNA_output5_I
*177 FILLER_0_0_1022
*178 FILLER_0_0_104
*179 FILLER_0_0_1056
*180 FILLER_0_0_1090
*181 FILLER_0_0_1124
*182 FILLER_0_0_1158
*183 FILLER_0_0_1192
*184 FILLER_0_0_1226
*185 FILLER_0_0_1260
*186 FILLER_0_0_1294
*187 FILLER_0_0_1328
*188 FILLER_0_0_1362
*189 FILLER_0_0_138
*190 FILLER_0_0_1396
*191 FILLER_0_0_1430
*192 FILLER_0_0_1464
*193 FILLER_0_0_1498
*194 FILLER_0_0_1532
*195 FILLER_0_0_1566
*196 FILLER_0_0_1600
*197 FILLER_0_0_1634
*198 FILLER_0_0_1668
*199 FILLER_0_0_1702
*200 FILLER_0_0_172
*201 FILLER_0_0_1736
*202 FILLER_0_0_1770
*203 FILLER_0_0_1804
*204 FILLER_0_0_1838
*205 FILLER_0_0_1872
*206 FILLER_0_0_1906
*207 FILLER_0_0_1940
*208 FILLER_0_0_1974
*209 FILLER_0_0_2
*210 FILLER_0_0_2008
*211 FILLER_0_0_2042
*212 FILLER_0_0_206
*213 FILLER_0_0_2076
*214 FILLER_0_0_2110
*215 FILLER_0_0_2144
*216 FILLER_0_0_2178
*217 FILLER_0_0_2212
*218 FILLER_0_0_2246
*219 FILLER_0_0_2280
*220 FILLER_0_0_2314
*221 FILLER_0_0_2348
*222 FILLER_0_0_2382
*223 FILLER_0_0_240
*224 FILLER_0_0_2416
*225 FILLER_0_0_2450
*226 FILLER_0_0_2484
*227 FILLER_0_0_2518
*228 FILLER_0_0_2552
*229 FILLER_0_0_2586
*230 FILLER_0_0_2620
*231 FILLER_0_0_2654
*232 FILLER_0_0_2688
*233 FILLER_0_0_2722
*234 FILLER_0_0_274
*235 FILLER_0_0_2756
*236 FILLER_0_0_2790
*237 FILLER_0_0_2824
*238 FILLER_0_0_2858
*239 FILLER_0_0_2892
*240 FILLER_0_0_2926
*241 FILLER_0_0_2960
*242 FILLER_0_0_2994
*243 FILLER_0_0_3028
*244 FILLER_0_0_3062
*245 FILLER_0_0_308
*246 FILLER_0_0_3096
*247 FILLER_0_0_3130
*248 FILLER_0_0_3164
*249 FILLER_0_0_3198
*250 FILLER_0_0_3232
*251 FILLER_0_0_3266
*252 FILLER_0_0_3300
*253 FILLER_0_0_3334
*254 FILLER_0_0_3368
*255 FILLER_0_0_3402
*256 FILLER_0_0_342
*257 FILLER_0_0_3436
*258 FILLER_0_0_3470
*259 FILLER_0_0_3504
*260 FILLER_0_0_3538
*261 FILLER_0_0_3572
*262 FILLER_0_0_36
*263 FILLER_0_0_3606
*264 FILLER_0_0_3640
*265 FILLER_0_0_3674
*266 FILLER_0_0_3708
*267 FILLER_0_0_3724
*268 FILLER_0_0_3732
*269 FILLER_0_0_3736
*270 FILLER_0_0_376
*271 FILLER_0_0_3768
*272 FILLER_0_0_3772
*273 FILLER_0_0_3776
*274 FILLER_0_0_3810
*275 FILLER_0_0_3844
*276 FILLER_0_0_3878
*277 FILLER_0_0_3912
*278 FILLER_0_0_3946
*279 FILLER_0_0_3980
*280 FILLER_0_0_4014
*281 FILLER_0_0_4048
*282 FILLER_0_0_4082
*283 FILLER_0_0_410
*284 FILLER_0_0_4116
*285 FILLER_0_0_4150
*286 FILLER_0_0_4184
*287 FILLER_0_0_4218
*288 FILLER_0_0_4252
*289 FILLER_0_0_4286
*290 FILLER_0_0_4320
*291 FILLER_0_0_4354
*292 FILLER_0_0_4388
*293 FILLER_0_0_4422
*294 FILLER_0_0_444
*295 FILLER_0_0_4456
*296 FILLER_0_0_4490
*297 FILLER_0_0_4524
*298 FILLER_0_0_4558
*299 FILLER_0_0_4592
*300 FILLER_0_0_4626
*301 FILLER_0_0_4660
*302 FILLER_0_0_4694
*303 FILLER_0_0_4728
*304 FILLER_0_0_4762
*305 FILLER_0_0_478
*306 FILLER_0_0_4796
*307 FILLER_0_0_4830
*308 FILLER_0_0_4864
*309 FILLER_0_0_4898
*310 FILLER_0_0_4932
*311 FILLER_0_0_4966
*312 FILLER_0_0_512
*313 FILLER_0_0_546
*314 FILLER_0_0_580
*315 FILLER_0_0_614
*316 FILLER_0_0_648
*317 FILLER_0_0_682
*318 FILLER_0_0_70
*319 FILLER_0_0_716
*320 FILLER_0_0_750
*321 FILLER_0_0_784
*322 FILLER_0_0_818
*323 FILLER_0_0_852
*324 FILLER_0_0_886
*325 FILLER_0_0_920
*326 FILLER_0_0_954
*327 FILLER_0_0_988
*328 FILLER_0_100_101
*329 FILLER_0_100_1011
*330 FILLER_0_100_1017
*331 FILLER_0_100_107
*332 FILLER_0_100_1081
*333 FILLER_0_100_1087
*334 FILLER_0_100_1151
*335 FILLER_0_100_1157
*336 FILLER_0_100_1221
*337 FILLER_0_100_1227
*338 FILLER_0_100_1291
*339 FILLER_0_100_1297
*340 FILLER_0_100_1361
*341 FILLER_0_100_1367
*342 FILLER_0_100_1431
*343 FILLER_0_100_1437
*344 FILLER_0_100_1501
*345 FILLER_0_100_1507
*346 FILLER_0_100_1571
*347 FILLER_0_100_1577
*348 FILLER_0_100_1641
*349 FILLER_0_100_1647
*350 FILLER_0_100_171
*351 FILLER_0_100_1711
*352 FILLER_0_100_1717
*353 FILLER_0_100_177
*354 FILLER_0_100_1781
*355 FILLER_0_100_1787
*356 FILLER_0_100_1851
*357 FILLER_0_100_1857
*358 FILLER_0_100_1921
*359 FILLER_0_100_1927
*360 FILLER_0_100_1991
*361 FILLER_0_100_1997
*362 FILLER_0_100_2
*363 FILLER_0_100_2061
*364 FILLER_0_100_2067
*365 FILLER_0_100_2131
*366 FILLER_0_100_2137
*367 FILLER_0_100_2201
*368 FILLER_0_100_2207
*369 FILLER_0_100_2271
*370 FILLER_0_100_2277
*371 FILLER_0_100_2341
*372 FILLER_0_100_2347
*373 FILLER_0_100_241
*374 FILLER_0_100_2411
*375 FILLER_0_100_2417
*376 FILLER_0_100_247
*377 FILLER_0_100_2481
*378 FILLER_0_100_2487
*379 FILLER_0_100_2551
*380 FILLER_0_100_2557
*381 FILLER_0_100_2621
*382 FILLER_0_100_2627
*383 FILLER_0_100_2691
*384 FILLER_0_100_2697
*385 FILLER_0_100_2761
*386 FILLER_0_100_2767
*387 FILLER_0_100_2831
*388 FILLER_0_100_2837
*389 FILLER_0_100_2901
*390 FILLER_0_100_2907
*391 FILLER_0_100_2971
*392 FILLER_0_100_2977
*393 FILLER_0_100_3041
*394 FILLER_0_100_3047
*395 FILLER_0_100_311
*396 FILLER_0_100_3111
*397 FILLER_0_100_3117
*398 FILLER_0_100_317
*399 FILLER_0_100_3181
*400 FILLER_0_100_3187
*401 FILLER_0_100_3251
*402 FILLER_0_100_3257
*403 FILLER_0_100_3321
*404 FILLER_0_100_3327
*405 FILLER_0_100_3391
*406 FILLER_0_100_3397
*407 FILLER_0_100_34
*408 FILLER_0_100_3461
*409 FILLER_0_100_3467
*410 FILLER_0_100_3531
*411 FILLER_0_100_3537
*412 FILLER_0_100_3601
*413 FILLER_0_100_3607
*414 FILLER_0_100_3671
*415 FILLER_0_100_3677
*416 FILLER_0_100_37
*417 FILLER_0_100_3741
*418 FILLER_0_100_3747
*419 FILLER_0_100_381
*420 FILLER_0_100_3811
*421 FILLER_0_100_3817
*422 FILLER_0_100_387
*423 FILLER_0_100_3881
*424 FILLER_0_100_3887
*425 FILLER_0_100_3951
*426 FILLER_0_100_3957
*427 FILLER_0_100_4021
*428 FILLER_0_100_4027
*429 FILLER_0_100_4091
*430 FILLER_0_100_4097
*431 FILLER_0_100_4161
*432 FILLER_0_100_4167
*433 FILLER_0_100_4231
*434 FILLER_0_100_4237
*435 FILLER_0_100_4301
*436 FILLER_0_100_4307
*437 FILLER_0_100_4371
*438 FILLER_0_100_4377
*439 FILLER_0_100_4441
*440 FILLER_0_100_4447
*441 FILLER_0_100_451
*442 FILLER_0_100_4511
*443 FILLER_0_100_4517
*444 FILLER_0_100_457
*445 FILLER_0_100_4581
*446 FILLER_0_100_4587
*447 FILLER_0_100_4651
*448 FILLER_0_100_4657
*449 FILLER_0_100_4721
*450 FILLER_0_100_4727
*451 FILLER_0_100_4791
*452 FILLER_0_100_4797
*453 FILLER_0_100_4861
*454 FILLER_0_100_4867
*455 FILLER_0_100_4931
*456 FILLER_0_100_4937
*457 FILLER_0_100_4969
*458 FILLER_0_100_4973
*459 FILLER_0_100_521
*460 FILLER_0_100_527
*461 FILLER_0_100_591
*462 FILLER_0_100_597
*463 FILLER_0_100_661
*464 FILLER_0_100_667
*465 FILLER_0_100_731
*466 FILLER_0_100_737
*467 FILLER_0_100_801
*468 FILLER_0_100_807
*469 FILLER_0_100_871
*470 FILLER_0_100_877
*471 FILLER_0_100_941
*472 FILLER_0_100_947
*473 FILLER_0_101_1046
*474 FILLER_0_101_1052
*475 FILLER_0_101_1116
*476 FILLER_0_101_1122
*477 FILLER_0_101_1186
*478 FILLER_0_101_1192
*479 FILLER_0_101_1256
*480 FILLER_0_101_1262
*481 FILLER_0_101_1326
*482 FILLER_0_101_1332
*483 FILLER_0_101_136
*484 FILLER_0_101_1396
*485 FILLER_0_101_1402
*486 FILLER_0_101_142
*487 FILLER_0_101_1466
*488 FILLER_0_101_1472
*489 FILLER_0_101_1536
*490 FILLER_0_101_1542
*491 FILLER_0_101_1606
*492 FILLER_0_101_1612
*493 FILLER_0_101_1676
*494 FILLER_0_101_1682
*495 FILLER_0_101_1746
*496 FILLER_0_101_1752
*497 FILLER_0_101_1816
*498 FILLER_0_101_1822
*499 FILLER_0_101_1886
*500 FILLER_0_101_1892
*501 FILLER_0_101_1956
*502 FILLER_0_101_1962
*503 FILLER_0_101_2
*504 FILLER_0_101_2026
*505 FILLER_0_101_2032
*506 FILLER_0_101_206
*507 FILLER_0_101_2096
*508 FILLER_0_101_2102
*509 FILLER_0_101_212
*510 FILLER_0_101_2166
*511 FILLER_0_101_2172
*512 FILLER_0_101_2236
*513 FILLER_0_101_2242
*514 FILLER_0_101_2306
*515 FILLER_0_101_2312
*516 FILLER_0_101_2376
*517 FILLER_0_101_2382
*518 FILLER_0_101_2446
*519 FILLER_0_101_2452
*520 FILLER_0_101_2516
*521 FILLER_0_101_2522
*522 FILLER_0_101_2586
*523 FILLER_0_101_2592
*524 FILLER_0_101_2656
*525 FILLER_0_101_2662
*526 FILLER_0_101_2726
*527 FILLER_0_101_2732
*528 FILLER_0_101_276
*529 FILLER_0_101_2796
*530 FILLER_0_101_2802
*531 FILLER_0_101_282
*532 FILLER_0_101_2866
*533 FILLER_0_101_2872
*534 FILLER_0_101_2936
*535 FILLER_0_101_2942
*536 FILLER_0_101_3006
*537 FILLER_0_101_3012
*538 FILLER_0_101_3076
*539 FILLER_0_101_3082
*540 FILLER_0_101_3146
*541 FILLER_0_101_3152
*542 FILLER_0_101_3216
*543 FILLER_0_101_3222
*544 FILLER_0_101_3286
*545 FILLER_0_101_3292
*546 FILLER_0_101_3356
*547 FILLER_0_101_3362
*548 FILLER_0_101_3426
*549 FILLER_0_101_3432
*550 FILLER_0_101_346
*551 FILLER_0_101_3496
*552 FILLER_0_101_3502
*553 FILLER_0_101_352
*554 FILLER_0_101_3566
*555 FILLER_0_101_3572
*556 FILLER_0_101_3636
*557 FILLER_0_101_3642
*558 FILLER_0_101_3706
*559 FILLER_0_101_3712
*560 FILLER_0_101_3776
*561 FILLER_0_101_3782
*562 FILLER_0_101_3846
*563 FILLER_0_101_3852
*564 FILLER_0_101_3916
*565 FILLER_0_101_3922
*566 FILLER_0_101_3986
*567 FILLER_0_101_3992
*568 FILLER_0_101_4056
*569 FILLER_0_101_4062
*570 FILLER_0_101_4126
*571 FILLER_0_101_4132
*572 FILLER_0_101_416
*573 FILLER_0_101_4196
*574 FILLER_0_101_4202
*575 FILLER_0_101_422
*576 FILLER_0_101_4266
*577 FILLER_0_101_4272
*578 FILLER_0_101_4336
*579 FILLER_0_101_4342
*580 FILLER_0_101_4406
*581 FILLER_0_101_4412
*582 FILLER_0_101_4476
*583 FILLER_0_101_4482
*584 FILLER_0_101_4546
*585 FILLER_0_101_4552
*586 FILLER_0_101_4616
*587 FILLER_0_101_4622
*588 FILLER_0_101_4686
*589 FILLER_0_101_4692
*590 FILLER_0_101_4756
*591 FILLER_0_101_4762
*592 FILLER_0_101_4826
*593 FILLER_0_101_4832
*594 FILLER_0_101_486
*595 FILLER_0_101_4896
*596 FILLER_0_101_4902
*597 FILLER_0_101_492
*598 FILLER_0_101_4966
*599 FILLER_0_101_4972
*600 FILLER_0_101_556
*601 FILLER_0_101_562
*602 FILLER_0_101_626
*603 FILLER_0_101_632
*604 FILLER_0_101_66
*605 FILLER_0_101_696
*606 FILLER_0_101_702
*607 FILLER_0_101_72
*608 FILLER_0_101_766
*609 FILLER_0_101_772
*610 FILLER_0_101_836
*611 FILLER_0_101_842
*612 FILLER_0_101_906
*613 FILLER_0_101_912
*614 FILLER_0_101_976
*615 FILLER_0_101_982
*616 FILLER_0_102_101
*617 FILLER_0_102_1011
*618 FILLER_0_102_1017
*619 FILLER_0_102_107
*620 FILLER_0_102_1081
*621 FILLER_0_102_1087
*622 FILLER_0_102_1151
*623 FILLER_0_102_1157
*624 FILLER_0_102_1221
*625 FILLER_0_102_1227
*626 FILLER_0_102_1291
*627 FILLER_0_102_1297
*628 FILLER_0_102_1361
*629 FILLER_0_102_1367
*630 FILLER_0_102_1431
*631 FILLER_0_102_1437
*632 FILLER_0_102_1501
*633 FILLER_0_102_1507
*634 FILLER_0_102_1571
*635 FILLER_0_102_1577
*636 FILLER_0_102_1641
*637 FILLER_0_102_1647
*638 FILLER_0_102_171
*639 FILLER_0_102_1711
*640 FILLER_0_102_1717
*641 FILLER_0_102_177
*642 FILLER_0_102_1781
*643 FILLER_0_102_1787
*644 FILLER_0_102_1851
*645 FILLER_0_102_1857
*646 FILLER_0_102_1921
*647 FILLER_0_102_1927
*648 FILLER_0_102_1991
*649 FILLER_0_102_1997
*650 FILLER_0_102_2
*651 FILLER_0_102_2061
*652 FILLER_0_102_2067
*653 FILLER_0_102_2131
*654 FILLER_0_102_2137
*655 FILLER_0_102_2201
*656 FILLER_0_102_2207
*657 FILLER_0_102_2271
*658 FILLER_0_102_2277
*659 FILLER_0_102_2341
*660 FILLER_0_102_2347
*661 FILLER_0_102_241
*662 FILLER_0_102_2411
*663 FILLER_0_102_2417
*664 FILLER_0_102_247
*665 FILLER_0_102_2481
*666 FILLER_0_102_2487
*667 FILLER_0_102_2551
*668 FILLER_0_102_2557
*669 FILLER_0_102_2621
*670 FILLER_0_102_2627
*671 FILLER_0_102_2691
*672 FILLER_0_102_2697
*673 FILLER_0_102_2761
*674 FILLER_0_102_2767
*675 FILLER_0_102_2831
*676 FILLER_0_102_2837
*677 FILLER_0_102_2901
*678 FILLER_0_102_2907
*679 FILLER_0_102_2971
*680 FILLER_0_102_2977
*681 FILLER_0_102_3041
*682 FILLER_0_102_3047
*683 FILLER_0_102_311
*684 FILLER_0_102_3111
*685 FILLER_0_102_3117
*686 FILLER_0_102_317
*687 FILLER_0_102_3181
*688 FILLER_0_102_3187
*689 FILLER_0_102_3251
*690 FILLER_0_102_3257
*691 FILLER_0_102_3321
*692 FILLER_0_102_3327
*693 FILLER_0_102_3391
*694 FILLER_0_102_3397
*695 FILLER_0_102_34
*696 FILLER_0_102_3461
*697 FILLER_0_102_3467
*698 FILLER_0_102_3531
*699 FILLER_0_102_3537
*700 FILLER_0_102_3601
*701 FILLER_0_102_3607
*702 FILLER_0_102_3671
*703 FILLER_0_102_3677
*704 FILLER_0_102_37
*705 FILLER_0_102_3741
*706 FILLER_0_102_3747
*707 FILLER_0_102_381
*708 FILLER_0_102_3811
*709 FILLER_0_102_3817
*710 FILLER_0_102_387
*711 FILLER_0_102_3881
*712 FILLER_0_102_3887
*713 FILLER_0_102_3951
*714 FILLER_0_102_3957
*715 FILLER_0_102_4021
*716 FILLER_0_102_4027
*717 FILLER_0_102_4091
*718 FILLER_0_102_4097
*719 FILLER_0_102_4161
*720 FILLER_0_102_4167
*721 FILLER_0_102_4231
*722 FILLER_0_102_4237
*723 FILLER_0_102_4301
*724 FILLER_0_102_4307
*725 FILLER_0_102_4371
*726 FILLER_0_102_4377
*727 FILLER_0_102_4441
*728 FILLER_0_102_4447
*729 FILLER_0_102_451
*730 FILLER_0_102_4511
*731 FILLER_0_102_4517
*732 FILLER_0_102_457
*733 FILLER_0_102_4581
*734 FILLER_0_102_4587
*735 FILLER_0_102_4651
*736 FILLER_0_102_4657
*737 FILLER_0_102_4721
*738 FILLER_0_102_4727
*739 FILLER_0_102_4791
*740 FILLER_0_102_4797
*741 FILLER_0_102_4861
*742 FILLER_0_102_4867
*743 FILLER_0_102_4931
*744 FILLER_0_102_4937
*745 FILLER_0_102_4969
*746 FILLER_0_102_4973
*747 FILLER_0_102_521
*748 FILLER_0_102_527
*749 FILLER_0_102_591
*750 FILLER_0_102_597
*751 FILLER_0_102_661
*752 FILLER_0_102_667
*753 FILLER_0_102_731
*754 FILLER_0_102_737
*755 FILLER_0_102_801
*756 FILLER_0_102_807
*757 FILLER_0_102_871
*758 FILLER_0_102_877
*759 FILLER_0_102_941
*760 FILLER_0_102_947
*761 FILLER_0_103_1046
*762 FILLER_0_103_1052
*763 FILLER_0_103_1116
*764 FILLER_0_103_1122
*765 FILLER_0_103_1186
*766 FILLER_0_103_1192
*767 FILLER_0_103_1256
*768 FILLER_0_103_1262
*769 FILLER_0_103_1326
*770 FILLER_0_103_1332
*771 FILLER_0_103_136
*772 FILLER_0_103_1396
*773 FILLER_0_103_1402
*774 FILLER_0_103_142
*775 FILLER_0_103_1466
*776 FILLER_0_103_1472
*777 FILLER_0_103_1536
*778 FILLER_0_103_1542
*779 FILLER_0_103_1606
*780 FILLER_0_103_1612
*781 FILLER_0_103_1676
*782 FILLER_0_103_1682
*783 FILLER_0_103_1746
*784 FILLER_0_103_1752
*785 FILLER_0_103_1816
*786 FILLER_0_103_1822
*787 FILLER_0_103_1886
*788 FILLER_0_103_1892
*789 FILLER_0_103_1956
*790 FILLER_0_103_1962
*791 FILLER_0_103_2
*792 FILLER_0_103_2026
*793 FILLER_0_103_2032
*794 FILLER_0_103_206
*795 FILLER_0_103_2096
*796 FILLER_0_103_2102
*797 FILLER_0_103_212
*798 FILLER_0_103_2166
*799 FILLER_0_103_2172
*800 FILLER_0_103_2236
*801 FILLER_0_103_2242
*802 FILLER_0_103_2306
*803 FILLER_0_103_2312
*804 FILLER_0_103_2376
*805 FILLER_0_103_2382
*806 FILLER_0_103_2446
*807 FILLER_0_103_2452
*808 FILLER_0_103_2516
*809 FILLER_0_103_2522
*810 FILLER_0_103_2586
*811 FILLER_0_103_2592
*812 FILLER_0_103_2656
*813 FILLER_0_103_2662
*814 FILLER_0_103_2726
*815 FILLER_0_103_2732
*816 FILLER_0_103_276
*817 FILLER_0_103_2796
*818 FILLER_0_103_2802
*819 FILLER_0_103_282
*820 FILLER_0_103_2866
*821 FILLER_0_103_2872
*822 FILLER_0_103_2936
*823 FILLER_0_103_2942
*824 FILLER_0_103_3006
*825 FILLER_0_103_3012
*826 FILLER_0_103_3076
*827 FILLER_0_103_3082
*828 FILLER_0_103_3146
*829 FILLER_0_103_3152
*830 FILLER_0_103_3216
*831 FILLER_0_103_3222
*832 FILLER_0_103_3286
*833 FILLER_0_103_3292
*834 FILLER_0_103_3356
*835 FILLER_0_103_3362
*836 FILLER_0_103_3426
*837 FILLER_0_103_3432
*838 FILLER_0_103_346
*839 FILLER_0_103_3496
*840 FILLER_0_103_3502
*841 FILLER_0_103_352
*842 FILLER_0_103_3566
*843 FILLER_0_103_3572
*844 FILLER_0_103_3636
*845 FILLER_0_103_3642
*846 FILLER_0_103_3706
*847 FILLER_0_103_3712
*848 FILLER_0_103_3776
*849 FILLER_0_103_3782
*850 FILLER_0_103_3846
*851 FILLER_0_103_3852
*852 FILLER_0_103_3916
*853 FILLER_0_103_3922
*854 FILLER_0_103_3986
*855 FILLER_0_103_3992
*856 FILLER_0_103_4056
*857 FILLER_0_103_4062
*858 FILLER_0_103_4126
*859 FILLER_0_103_4132
*860 FILLER_0_103_416
*861 FILLER_0_103_4196
*862 FILLER_0_103_4202
*863 FILLER_0_103_422
*864 FILLER_0_103_4266
*865 FILLER_0_103_4272
*866 FILLER_0_103_4336
*867 FILLER_0_103_4342
*868 FILLER_0_103_4406
*869 FILLER_0_103_4412
*870 FILLER_0_103_4476
*871 FILLER_0_103_4482
*872 FILLER_0_103_4546
*873 FILLER_0_103_4552
*874 FILLER_0_103_4616
*875 FILLER_0_103_4622
*876 FILLER_0_103_4686
*877 FILLER_0_103_4692
*878 FILLER_0_103_4756
*879 FILLER_0_103_4762
*880 FILLER_0_103_4826
*881 FILLER_0_103_4832
*882 FILLER_0_103_486
*883 FILLER_0_103_4896
*884 FILLER_0_103_4902
*885 FILLER_0_103_492
*886 FILLER_0_103_4966
*887 FILLER_0_103_4972
*888 FILLER_0_103_556
*889 FILLER_0_103_562
*890 FILLER_0_103_626
*891 FILLER_0_103_632
*892 FILLER_0_103_66
*893 FILLER_0_103_696
*894 FILLER_0_103_702
*895 FILLER_0_103_72
*896 FILLER_0_103_766
*897 FILLER_0_103_772
*898 FILLER_0_103_836
*899 FILLER_0_103_842
*900 FILLER_0_103_906
*901 FILLER_0_103_912
*902 FILLER_0_103_976
*903 FILLER_0_103_982
*904 FILLER_0_104_101
*905 FILLER_0_104_1011
*906 FILLER_0_104_1017
*907 FILLER_0_104_107
*908 FILLER_0_104_1081
*909 FILLER_0_104_1087
*910 FILLER_0_104_1151
*911 FILLER_0_104_1157
*912 FILLER_0_104_1221
*913 FILLER_0_104_1227
*914 FILLER_0_104_1291
*915 FILLER_0_104_1297
*916 FILLER_0_104_1361
*917 FILLER_0_104_1367
*918 FILLER_0_104_1431
*919 FILLER_0_104_1437
*920 FILLER_0_104_1501
*921 FILLER_0_104_1507
*922 FILLER_0_104_1571
*923 FILLER_0_104_1577
*924 FILLER_0_104_1641
*925 FILLER_0_104_1647
*926 FILLER_0_104_171
*927 FILLER_0_104_1711
*928 FILLER_0_104_1717
*929 FILLER_0_104_177
*930 FILLER_0_104_1781
*931 FILLER_0_104_1787
*932 FILLER_0_104_1851
*933 FILLER_0_104_1857
*934 FILLER_0_104_1921
*935 FILLER_0_104_1927
*936 FILLER_0_104_1991
*937 FILLER_0_104_1997
*938 FILLER_0_104_2
*939 FILLER_0_104_2061
*940 FILLER_0_104_2067
*941 FILLER_0_104_2131
*942 FILLER_0_104_2137
*943 FILLER_0_104_2201
*944 FILLER_0_104_2207
*945 FILLER_0_104_2271
*946 FILLER_0_104_2277
*947 FILLER_0_104_2341
*948 FILLER_0_104_2347
*949 FILLER_0_104_241
*950 FILLER_0_104_2411
*951 FILLER_0_104_2417
*952 FILLER_0_104_247
*953 FILLER_0_104_2481
*954 FILLER_0_104_2487
*955 FILLER_0_104_2551
*956 FILLER_0_104_2557
*957 FILLER_0_104_2621
*958 FILLER_0_104_2627
*959 FILLER_0_104_2691
*960 FILLER_0_104_2697
*961 FILLER_0_104_2761
*962 FILLER_0_104_2767
*963 FILLER_0_104_2831
*964 FILLER_0_104_2837
*965 FILLER_0_104_2901
*966 FILLER_0_104_2907
*967 FILLER_0_104_2971
*968 FILLER_0_104_2977
*969 FILLER_0_104_3041
*970 FILLER_0_104_3047
*971 FILLER_0_104_311
*972 FILLER_0_104_3111
*973 FILLER_0_104_3117
*974 FILLER_0_104_317
*975 FILLER_0_104_3181
*976 FILLER_0_104_3187
*977 FILLER_0_104_3251
*978 FILLER_0_104_3257
*979 FILLER_0_104_3321
*980 FILLER_0_104_3327
*981 FILLER_0_104_3391
*982 FILLER_0_104_3397
*983 FILLER_0_104_34
*984 FILLER_0_104_3461
*985 FILLER_0_104_3467
*986 FILLER_0_104_3531
*987 FILLER_0_104_3537
*988 FILLER_0_104_3601
*989 FILLER_0_104_3607
*990 FILLER_0_104_3671
*991 FILLER_0_104_3677
*992 FILLER_0_104_37
*993 FILLER_0_104_3741
*994 FILLER_0_104_3747
*995 FILLER_0_104_381
*996 FILLER_0_104_3811
*997 FILLER_0_104_3817
*998 FILLER_0_104_387
*999 FILLER_0_104_3881
*1000 FILLER_0_104_3887
*1001 FILLER_0_104_3951
*1002 FILLER_0_104_3957
*1003 FILLER_0_104_4021
*1004 FILLER_0_104_4027
*1005 FILLER_0_104_4091
*1006 FILLER_0_104_4097
*1007 FILLER_0_104_4161
*1008 FILLER_0_104_4167
*1009 FILLER_0_104_4231
*1010 FILLER_0_104_4237
*1011 FILLER_0_104_4301
*1012 FILLER_0_104_4307
*1013 FILLER_0_104_4371
*1014 FILLER_0_104_4377
*1015 FILLER_0_104_4441
*1016 FILLER_0_104_4447
*1017 FILLER_0_104_451
*1018 FILLER_0_104_4511
*1019 FILLER_0_104_4517
*1020 FILLER_0_104_457
*1021 FILLER_0_104_4581
*1022 FILLER_0_104_4587
*1023 FILLER_0_104_4651
*1024 FILLER_0_104_4657
*1025 FILLER_0_104_4721
*1026 FILLER_0_104_4727
*1027 FILLER_0_104_4791
*1028 FILLER_0_104_4797
*1029 FILLER_0_104_4861
*1030 FILLER_0_104_4867
*1031 FILLER_0_104_4931
*1032 FILLER_0_104_4937
*1033 FILLER_0_104_4969
*1034 FILLER_0_104_4973
*1035 FILLER_0_104_521
*1036 FILLER_0_104_527
*1037 FILLER_0_104_591
*1038 FILLER_0_104_597
*1039 FILLER_0_104_661
*1040 FILLER_0_104_667
*1041 FILLER_0_104_731
*1042 FILLER_0_104_737
*1043 FILLER_0_104_801
*1044 FILLER_0_104_807
*1045 FILLER_0_104_871
*1046 FILLER_0_104_877
*1047 FILLER_0_104_941
*1048 FILLER_0_104_947
*1049 FILLER_0_105_1046
*1050 FILLER_0_105_1052
*1051 FILLER_0_105_1116
*1052 FILLER_0_105_1122
*1053 FILLER_0_105_1186
*1054 FILLER_0_105_1192
*1055 FILLER_0_105_1256
*1056 FILLER_0_105_1262
*1057 FILLER_0_105_1326
*1058 FILLER_0_105_1332
*1059 FILLER_0_105_136
*1060 FILLER_0_105_1396
*1061 FILLER_0_105_1402
*1062 FILLER_0_105_142
*1063 FILLER_0_105_1466
*1064 FILLER_0_105_1472
*1065 FILLER_0_105_1536
*1066 FILLER_0_105_1542
*1067 FILLER_0_105_1606
*1068 FILLER_0_105_1612
*1069 FILLER_0_105_1676
*1070 FILLER_0_105_1682
*1071 FILLER_0_105_1746
*1072 FILLER_0_105_1752
*1073 FILLER_0_105_1816
*1074 FILLER_0_105_1822
*1075 FILLER_0_105_1886
*1076 FILLER_0_105_1892
*1077 FILLER_0_105_1956
*1078 FILLER_0_105_1962
*1079 FILLER_0_105_2
*1080 FILLER_0_105_2026
*1081 FILLER_0_105_2032
*1082 FILLER_0_105_206
*1083 FILLER_0_105_2096
*1084 FILLER_0_105_2102
*1085 FILLER_0_105_212
*1086 FILLER_0_105_2166
*1087 FILLER_0_105_2172
*1088 FILLER_0_105_2236
*1089 FILLER_0_105_2242
*1090 FILLER_0_105_2306
*1091 FILLER_0_105_2312
*1092 FILLER_0_105_2376
*1093 FILLER_0_105_2382
*1094 FILLER_0_105_2446
*1095 FILLER_0_105_2452
*1096 FILLER_0_105_2516
*1097 FILLER_0_105_2522
*1098 FILLER_0_105_2586
*1099 FILLER_0_105_2592
*1100 FILLER_0_105_2656
*1101 FILLER_0_105_2662
*1102 FILLER_0_105_2726
*1103 FILLER_0_105_2732
*1104 FILLER_0_105_276
*1105 FILLER_0_105_2796
*1106 FILLER_0_105_2802
*1107 FILLER_0_105_282
*1108 FILLER_0_105_2866
*1109 FILLER_0_105_2872
*1110 FILLER_0_105_2936
*1111 FILLER_0_105_2942
*1112 FILLER_0_105_3006
*1113 FILLER_0_105_3012
*1114 FILLER_0_105_3076
*1115 FILLER_0_105_3082
*1116 FILLER_0_105_3146
*1117 FILLER_0_105_3152
*1118 FILLER_0_105_3216
*1119 FILLER_0_105_3222
*1120 FILLER_0_105_3286
*1121 FILLER_0_105_3292
*1122 FILLER_0_105_3356
*1123 FILLER_0_105_3362
*1124 FILLER_0_105_3426
*1125 FILLER_0_105_3432
*1126 FILLER_0_105_346
*1127 FILLER_0_105_3496
*1128 FILLER_0_105_3502
*1129 FILLER_0_105_352
*1130 FILLER_0_105_3566
*1131 FILLER_0_105_3572
*1132 FILLER_0_105_3636
*1133 FILLER_0_105_3642
*1134 FILLER_0_105_3706
*1135 FILLER_0_105_3712
*1136 FILLER_0_105_3776
*1137 FILLER_0_105_3782
*1138 FILLER_0_105_3846
*1139 FILLER_0_105_3852
*1140 FILLER_0_105_3916
*1141 FILLER_0_105_3922
*1142 FILLER_0_105_3986
*1143 FILLER_0_105_3992
*1144 FILLER_0_105_4056
*1145 FILLER_0_105_4062
*1146 FILLER_0_105_4126
*1147 FILLER_0_105_4132
*1148 FILLER_0_105_416
*1149 FILLER_0_105_4196
*1150 FILLER_0_105_4202
*1151 FILLER_0_105_422
*1152 FILLER_0_105_4266
*1153 FILLER_0_105_4272
*1154 FILLER_0_105_4336
*1155 FILLER_0_105_4342
*1156 FILLER_0_105_4406
*1157 FILLER_0_105_4412
*1158 FILLER_0_105_4476
*1159 FILLER_0_105_4482
*1160 FILLER_0_105_4546
*1161 FILLER_0_105_4552
*1162 FILLER_0_105_4616
*1163 FILLER_0_105_4622
*1164 FILLER_0_105_4686
*1165 FILLER_0_105_4692
*1166 FILLER_0_105_4756
*1167 FILLER_0_105_4762
*1168 FILLER_0_105_4826
*1169 FILLER_0_105_4832
*1170 FILLER_0_105_486
*1171 FILLER_0_105_4896
*1172 FILLER_0_105_4902
*1173 FILLER_0_105_492
*1174 FILLER_0_105_4966
*1175 FILLER_0_105_4972
*1176 FILLER_0_105_556
*1177 FILLER_0_105_562
*1178 FILLER_0_105_626
*1179 FILLER_0_105_632
*1180 FILLER_0_105_66
*1181 FILLER_0_105_696
*1182 FILLER_0_105_702
*1183 FILLER_0_105_72
*1184 FILLER_0_105_766
*1185 FILLER_0_105_772
*1186 FILLER_0_105_836
*1187 FILLER_0_105_842
*1188 FILLER_0_105_906
*1189 FILLER_0_105_912
*1190 FILLER_0_105_976
*1191 FILLER_0_105_982
*1192 FILLER_0_106_101
*1193 FILLER_0_106_1011
*1194 FILLER_0_106_1017
*1195 FILLER_0_106_107
*1196 FILLER_0_106_1081
*1197 FILLER_0_106_1087
*1198 FILLER_0_106_1151
*1199 FILLER_0_106_1157
*1200 FILLER_0_106_1221
*1201 FILLER_0_106_1227
*1202 FILLER_0_106_1291
*1203 FILLER_0_106_1297
*1204 FILLER_0_106_1361
*1205 FILLER_0_106_1367
*1206 FILLER_0_106_1431
*1207 FILLER_0_106_1437
*1208 FILLER_0_106_1501
*1209 FILLER_0_106_1507
*1210 FILLER_0_106_1571
*1211 FILLER_0_106_1577
*1212 FILLER_0_106_1641
*1213 FILLER_0_106_1647
*1214 FILLER_0_106_171
*1215 FILLER_0_106_1711
*1216 FILLER_0_106_1717
*1217 FILLER_0_106_177
*1218 FILLER_0_106_1781
*1219 FILLER_0_106_1787
*1220 FILLER_0_106_1851
*1221 FILLER_0_106_1857
*1222 FILLER_0_106_1921
*1223 FILLER_0_106_1927
*1224 FILLER_0_106_1991
*1225 FILLER_0_106_1997
*1226 FILLER_0_106_2
*1227 FILLER_0_106_2061
*1228 FILLER_0_106_2067
*1229 FILLER_0_106_2131
*1230 FILLER_0_106_2137
*1231 FILLER_0_106_2201
*1232 FILLER_0_106_2207
*1233 FILLER_0_106_2271
*1234 FILLER_0_106_2277
*1235 FILLER_0_106_2341
*1236 FILLER_0_106_2347
*1237 FILLER_0_106_241
*1238 FILLER_0_106_2411
*1239 FILLER_0_106_2417
*1240 FILLER_0_106_247
*1241 FILLER_0_106_2481
*1242 FILLER_0_106_2487
*1243 FILLER_0_106_2551
*1244 FILLER_0_106_2557
*1245 FILLER_0_106_2621
*1246 FILLER_0_106_2627
*1247 FILLER_0_106_2691
*1248 FILLER_0_106_2697
*1249 FILLER_0_106_2761
*1250 FILLER_0_106_2767
*1251 FILLER_0_106_2831
*1252 FILLER_0_106_2837
*1253 FILLER_0_106_2901
*1254 FILLER_0_106_2907
*1255 FILLER_0_106_2971
*1256 FILLER_0_106_2977
*1257 FILLER_0_106_3041
*1258 FILLER_0_106_3047
*1259 FILLER_0_106_311
*1260 FILLER_0_106_3111
*1261 FILLER_0_106_3117
*1262 FILLER_0_106_317
*1263 FILLER_0_106_3181
*1264 FILLER_0_106_3187
*1265 FILLER_0_106_3251
*1266 FILLER_0_106_3257
*1267 FILLER_0_106_3321
*1268 FILLER_0_106_3327
*1269 FILLER_0_106_3391
*1270 FILLER_0_106_3397
*1271 FILLER_0_106_34
*1272 FILLER_0_106_3461
*1273 FILLER_0_106_3467
*1274 FILLER_0_106_3531
*1275 FILLER_0_106_3537
*1276 FILLER_0_106_3601
*1277 FILLER_0_106_3607
*1278 FILLER_0_106_3671
*1279 FILLER_0_106_3677
*1280 FILLER_0_106_37
*1281 FILLER_0_106_3741
*1282 FILLER_0_106_3747
*1283 FILLER_0_106_381
*1284 FILLER_0_106_3811
*1285 FILLER_0_106_3817
*1286 FILLER_0_106_387
*1287 FILLER_0_106_3881
*1288 FILLER_0_106_3887
*1289 FILLER_0_106_3951
*1290 FILLER_0_106_3957
*1291 FILLER_0_106_4021
*1292 FILLER_0_106_4027
*1293 FILLER_0_106_4091
*1294 FILLER_0_106_4097
*1295 FILLER_0_106_4161
*1296 FILLER_0_106_4167
*1297 FILLER_0_106_4231
*1298 FILLER_0_106_4237
*1299 FILLER_0_106_4301
*1300 FILLER_0_106_4307
*1301 FILLER_0_106_4371
*1302 FILLER_0_106_4377
*1303 FILLER_0_106_4441
*1304 FILLER_0_106_4447
*1305 FILLER_0_106_451
*1306 FILLER_0_106_4511
*1307 FILLER_0_106_4517
*1308 FILLER_0_106_457
*1309 FILLER_0_106_4581
*1310 FILLER_0_106_4587
*1311 FILLER_0_106_4651
*1312 FILLER_0_106_4657
*1313 FILLER_0_106_4721
*1314 FILLER_0_106_4727
*1315 FILLER_0_106_4791
*1316 FILLER_0_106_4797
*1317 FILLER_0_106_4861
*1318 FILLER_0_106_4867
*1319 FILLER_0_106_4931
*1320 FILLER_0_106_4937
*1321 FILLER_0_106_4969
*1322 FILLER_0_106_4973
*1323 FILLER_0_106_521
*1324 FILLER_0_106_527
*1325 FILLER_0_106_591
*1326 FILLER_0_106_597
*1327 FILLER_0_106_661
*1328 FILLER_0_106_667
*1329 FILLER_0_106_731
*1330 FILLER_0_106_737
*1331 FILLER_0_106_801
*1332 FILLER_0_106_807
*1333 FILLER_0_106_871
*1334 FILLER_0_106_877
*1335 FILLER_0_106_941
*1336 FILLER_0_106_947
*1337 FILLER_0_107_1046
*1338 FILLER_0_107_1052
*1339 FILLER_0_107_1116
*1340 FILLER_0_107_1122
*1341 FILLER_0_107_1186
*1342 FILLER_0_107_1192
*1343 FILLER_0_107_1256
*1344 FILLER_0_107_1262
*1345 FILLER_0_107_1326
*1346 FILLER_0_107_1332
*1347 FILLER_0_107_136
*1348 FILLER_0_107_1396
*1349 FILLER_0_107_1402
*1350 FILLER_0_107_142
*1351 FILLER_0_107_1466
*1352 FILLER_0_107_1472
*1353 FILLER_0_107_1536
*1354 FILLER_0_107_1542
*1355 FILLER_0_107_1606
*1356 FILLER_0_107_1612
*1357 FILLER_0_107_1676
*1358 FILLER_0_107_1682
*1359 FILLER_0_107_1746
*1360 FILLER_0_107_1752
*1361 FILLER_0_107_1816
*1362 FILLER_0_107_1822
*1363 FILLER_0_107_1886
*1364 FILLER_0_107_1892